8
2,2,2-Trifluoroacetic acid
  C      0.5119     -0.1804      0.1034
  C     -0.8986      0.4734     -0.1579
  O     -1.1639      1.6412     -0.0517
  O     -1.9253     -0.3042     -0.5347
  F      1.4648      0.6901      0.4768
  F      0.9963     -0.8142     -0.9854
  F      0.4730     -1.1227      1.0689
  H     -1.6614     -1.2137     -0.6023
